egret/models/tests/pglib_opf_case3_lmbd_acopf_0980.json
{"elements": {"bus": {"1": {"matpower_bustype": "ref", "area": 1.0, "vm": 1.0999999923407189, "va": 0.0, "base_kv": 240.0, "zone": 1.0, "v_min": 0.9, "v_max": 1.1, "lmp": 36.32738633322768, "qlmp": 6.325342801348475e-11, "pl": 107.80000000000001, "ql": 39.2}, "2": {"matpower_bustype": "PV", "area": 1.0, "vm": 0.9261705370524437, "va": 0.13967650180220414, "base_kv": 240.0, "zone": 1.0, "v_min": 0.9, "v_max": 1.1, "lmp": 29.97576174545388, "qlmp": -1.1313207557980712e-11, "pl": 107.80000000000001, "ql": 39.2}, "3": {"matpower_bustype": "PV", "area": 1.0, "vm": 0.9, "va": -0.2883816841545845, "base_kv": 240.0, "zone": 1.0, "v_min": 0.9, "v_max": 1.1, "lmp": 43.17037693532368, "qlmp": -8.930891859732411e-12, "pl": 93.1, "ql": 49.0}}, "load": {"load_1": {"in_service": true, "p_load": 107.80000000000001, "q_load": 39.2, "bus": "1"}, "load_2": {"in_service": true, "p_load": 107.80000000000001, "q_load": 39.2, "bus": "2"}, "load_3": {"in_service": true, "p_load": 93.1, "q_load": 49.0, "bus": "3"}}, "generator": {"1": {"bus": "1", "pg": 142.39721062226994, "qg": 53.769564084987294, "vg": 1.0, "mbase": 100.0, "in_service": true, "p_min": 0.0, "p_max": 2000.0, "q_min": -1000.0, "q_max": 1000.0, "generator_type": "thermal", "p_cost": {"data_type": "cost_curve", "cost_curve_type": "polynomial", "values": {"0": 0.0, "1": 5.0, "2": 0.11}}, "startup_cost": 0.0, "shutdown_cost": 0.0}, "2": {"bus": "2", "pg": 169.26918675567399, "qg": -9.464202529783847, "vg": 1.0, "mbase": 100.0, "in_service": true, "p_min": 0.0, "p_max": 2000.0, "q_min": -1000.0, "q_max": 1000.0, "generator_type": "thermal", "p_cost": {"data_type": "cost_curve", "cost_curve_type": "polynomial", "values": {"0": 0.0, "1": 1.2, "2": 0.08500000000000002}}, "startup_cost": 0.0, "shutdown_cost": 0.0}, "3": {"bus": "3", "pg": 0.0, "qg": -6.6444462935485005, "vg": 1.0, "mbase": 100.0, "in_service": true, "p_min": 0.0, "p_max": 0.0, "q_min": -1000.0, "q_max": 1000.0, "generator_type": "thermal", "p_cost": {"data_type": "cost_curve", "cost_curve_type": "polynomial", "values": {"0": 0.0, "1": 0.0, "2": 0.0}}, "startup_cost": 0.0, "shutdown_cost": 0.0}}, "branch": {"1": {"from_bus": "1", "to_bus": "3", "resistance": 0.065, "reactance": 0.62, "charging_susceptance": 0.45, "branch_type": "line", "rating_long_term": 9000.0, "rating_short_term": 9000.0, "rating_emergency": 9000.0, "in_service": true, "angle_diff_min": -30.0, "angle_diff_max": 30.0, "pf": 49.282137576241084, "qf": 9.686013498334546, "pt": -47.24556830754355, "qt": -35.71027513811204, "pfl": 2.0365692686975354, "qfl": -26.024261639777492, "pf_dual": 3632.7386333229, "qf_dual": 6.354564631044495e-09}, "2": {"from_bus": "3", "to_bus": "2", "resistance": 0.025, "reactance": 0.75, "charging_susceptance": 0.7, "branch_type": "line", "rating_long_term": 50.0, "rating_short_term": 50.0, "rating_emergency": 50.0, "in_service": true, "angle_diff_min": -30.0, "angle_diff_max": 30.0, "pf": -45.854431692456444, "qf": -19.934171155436466, "pt": 46.525251171613, "qt": -18.313959172383644, "pfl": 0.6708194791565592, "qfl": -38.24813032782011, "pf_dual": 3933.5056079824867, "qf_dual": -166.7318455144284}, "3": {"from_bus": "1", "to_bus": "2", "resistance": 0.042, "reactance": 0.9, "charging_susceptance": 0.3, "branch_type": "line", "rating_long_term": 9000.0, "rating_short_term": 9000.0, "rating_emergency": 9000.0, "in_service": true, "angle_diff_min": -30.0, "angle_diff_max": 30.0, "pf": -14.684926953971164, "qf": 4.883550586652758, "pt": 14.943935584061, "qt": -30.35024335740021, "pfl": 0.2590086300898353, "qfl": -25.46669277074745, "pf_dual": 3632.7386333227273, "qf_dual": 6.340785312457181e-09}}}, "system": {"model_name": "pglib_opf_case3_lmbd", "mpc_version": "'2'", "baseMVA": 100.0, "reference_bus": "1", "reference_bus_angle": 0.0, "total_cost": 5581.000187167316, "ploss": 2.96639737794393, "qloss": -89.73908473834504, "mult": 0.98}, "results": {"time": 0.021061182022094727, "#_cons": 36, "#_vars": 23, "termination": "optimal"}}